6ZHC - lig
                    3D
 Schrodinger Suite 2022-4.
 65 67  0  0  1  0            999 V2000
   31.8658   35.2275   12.7934 C   0  0  0  0  0  0
   32.2265   38.6318   14.6060 C   0  0  0  0  0  0
   33.2155   39.5999   14.4206 C   0  0  0  0  0  0
   33.1830   40.7801   15.1579 C   0  0  0  0  0  0
   31.1492   40.0428   16.2377 C   0  0  0  0  0  0
   28.5747   43.2582   17.5866 C   0  0  1  0  0  0
   27.6971   42.2145   16.8725 C   0  0  0  0  0  0
   28.2781   45.7107   17.9533 C   0  0  0  0  0  0
   27.4378   47.0095   17.8052 C   0  0  2  0  0  0
   27.8504   47.1440   15.2471 C   0  0  0  0  0  0
   30.1325   43.8292   15.8344 O   0  0  0  0  0  0
   29.9697   43.2894   16.9288 C   0  0  0  0  0  0
   30.9321   42.6072   17.5630 N   0  0  0  0  0  0
   32.2159   42.2486   16.9662 C   0  0  0  0  0  0
   32.1728   40.9897   16.0994 C   0  0  0  0  0  0
   31.1739   38.8738   15.4906 C   0  0  0  0  0  0
   32.3172   37.3236   13.9060 C   0  0  0  0  0  0
   33.4082   36.4722   13.6949 C   0  0  0  0  0  0
   34.8501   36.6510   14.1179 C   0  0  0  0  0  0
   33.1325   35.3390   13.0783 N   0  0  0  0  0  0
   30.8915   36.5738   13.2371 S   0  0  0  0  0  0
   26.2910   42.7802   16.9226 C   0  0  1  0  0  0
   25.7282   42.4762   18.1812 O   0  0  0  0  0  0
   26.5322   44.2901   16.7923 C   0  0  0  0  0  0
   27.8053   44.5189   17.4940 N   0  0  0  0  0  0
   29.3884   45.8083   18.4866 O   0  0  0  0  0  0
   27.8832   47.9141   16.5928 C   0  0  0  0  0  0
   29.3065   48.5081   16.7780 C   0  0  0  0  0  0
   26.8931   49.0998   16.4638 C   0  0  0  0  0  0
   27.5122   47.7368   19.0861 N   0  0  0  0  0  0
   26.5552   47.7749   20.0245 C   0  0  0  0  0  0
   25.4624   47.2325   19.8978 O   0  0  0  0  0  0
   26.8700   48.5264   21.3128 C   0  0  0  0  0  0
   31.4391   34.3741   12.2893 H   0  0  0  0  0  0
   34.0250   39.4307   13.7256 H   0  0  0  0  0  0
   33.9708   41.5084   15.0290 H   0  0  0  0  0  0
   30.3467   40.1826   16.9455 H   0  0  0  0  0  0
   28.7221   42.9820   18.6313 H   0  0  0  0  0  0
   27.8077   41.2256   17.3174 H   0  0  0  0  0  0
   27.9628   42.0950   15.8206 H   0  0  0  0  0  0
   26.3960   46.7422   17.6361 H   0  0  0  0  0  0
   28.1309   47.7868   14.4115 H   0  0  0  0  0  0
   28.5447   46.3036   15.2339 H   0  0  0  0  0  0
   26.8552   46.7599   15.0287 H   0  0  0  0  0  0
   30.6906   42.1319   18.4221 H   0  0  0  0  0  0
   32.9339   42.0776   17.7692 H   0  0  0  0  0  0
   32.6063   43.0809   16.3754 H   0  0  0  0  0  0
   30.3955   38.1398   15.6397 H   0  0  0  0  0  0
   35.2458   35.7511   14.5892 H   0  0  0  0  0  0
   35.4940   36.8828   13.2692 H   0  0  0  0  0  0
   34.9753   37.4543   14.8439 H   0  0  0  0  0  0
   25.6292   42.3793   16.1559 H   0  0  0  0  0  0
   24.9297   43.0057   18.2922 H   0  0  0  0  0  0
   25.6790   44.8457   17.1789 H   0  0  0  0  0  0
   26.6525   44.5413   15.7384 H   0  0  0  0  0  0
   29.5924   49.1244   15.9243 H   0  0  0  0  0  0
   29.3732   49.1468   17.6594 H   0  0  0  0  0  0
   30.0686   47.7343   16.8665 H   0  0  0  0  0  0
   27.1477   49.7457   15.6222 H   0  0  0  0  0  0
   25.8735   48.7503   16.2976 H   0  0  0  0  0  0
   26.8868   49.7310   17.3532 H   0  0  0  0  0  0
   28.4037   48.1740   19.2790 H   0  0  0  0  0  0
   26.5529   47.9428   22.1770 H   0  0  0  0  0  0
   27.9358   48.7289   21.4134 H   0  0  0  0  0  0
   26.3359   49.4764   21.3297 H   0  0  0  0  0  0
  1 20  2  0  0  0
  1 21  1  0  0  0
  1 34  1  0  0  0
  2  3  1  0  0  0
  2 16  2  0  0  0
  2 17  1  0  0  0
  3  4  2  0  0  0
  3 35  1  0  0  0
  4 15  1  0  0  0
  4 36  1  0  0  0
  5 15  2  0  0  0
  5 16  1  0  0  0
  5 37  1  0  0  0
  6  7  1  0  0  0
  6 12  1  0  0  0
  6 25  1  0  0  0
  6 38  1  0  0  0
  7 22  1  0  0  0
  7 39  1  0  0  0
  7 40  1  0  0  0
  8  9  1  0  0  0
  8 25  1  0  0  0
  8 26  2  0  0  0
  9 27  1  0  0  0
  9 30  1  0  0  0
  9 41  1  0  0  0
 10 27  1  0  0  0
 10 42  1  0  0  0
 10 43  1  0  0  0
 10 44  1  0  0  0
 11 12  2  0  0  0
 12 13  1  0  0  0
 13 14  1  0  0  0
 13 45  1  0  0  0
 14 15  1  0  0  0
 14 46  1  0  0  0
 14 47  1  0  0  0
 16 48  1  0  0  0
 17 18  2  0  0  0
 17 21  1  0  0  0
 18 19  1  0  0  0
 18 20  1  0  0  0
 19 49  1  0  0  0
 19 50  1  0  0  0
 19 51  1  0  0  0
 22 23  1  0  0  0
 22 24  1  0  0  0
 22 52  1  0  0  0
 23 53  1  0  0  0
 24 25  1  0  0  0
 24 54  1  0  0  0
 24 55  1  0  0  0
 27 28  1  0  0  0
 27 29  1  0  0  0
 28 56  1  0  0  0
 28 57  1  0  0  0
 28 58  1  0  0  0
 29 59  1  0  0  0
 29 60  1  0  0  0
 29 61  1  0  0  0
 30 31  1  0  0  0
 30 62  1  0  0  0
 31 32  2  0  0  0
 31 33  1  0  0  0
 33 63  1  0  0  0
 33 64  1  0  0  0
 33 65  1  0  0  0
M  END
> <s_m_entry_id>
27563

> <s_m_entry_name>
6zhc.1

> <s_pdb_PDB_TITLE>
PROTAC6 mediated complex of VHL:EloB:EloC and Bcl-xL

> <s_pdb_PDB_ID>
6ZHC

> <r_pdb_PDB_CRYST1_a>
70.9899978637695

> <r_pdb_PDB_CRYST1_b>
101.180000305176

> <r_pdb_PDB_CRYST1_c>
106.930000305176

> <r_pdb_PDB_CRYST1_alpha>
90

> <r_pdb_PDB_CRYST1_beta>
90

> <r_pdb_PDB_CRYST1_gamma>
90

> <s_pdb_PDB_CRYST1_Space_Group>
P 21 21 21

> <i_pdb_PDB_CRYST1_z>
4

> <s_pdb_PDB_CLASSIFICATION>
TRANSCRIPTION

> <s_pdb_PDB_DEPOSITION_DATE>
2020-06-22

> <s_pdb_PDB_format_version>
5.333

> <r_pdb_PDB_R>
0.169400006532669

> <r_pdb_PDB_Rfree>
0.195700004696846

> <r_pdb_PDB_RESOLUTION>
1.91999995708466

> <s_pdb_PDB_EXPDTA>
X-RAY DIFFRACTION

> <r_pdb_PDB_EXPDTA_TEMPERATURE>
100

> <r_pdb_PDB_EXPDTA_PH>
6.5

> <s_pdb_PDB_REMARK_350_Biomolecule_1_Transform_1_Chains>
AAA, BBB, CCC, DDD

> <s_pdb_PDB_REMARK_350_Biomolecule_1_Transform_1_Matrix_1>
1.000000 0.000000 0.000000   0.000000;0.000000 1.000000 0.000000   0.000000;0.000000 0.000000 1.000000   0.000000

> <s_m_Source_Path>
/Users/asgharrazavi/proteinprep_23

> <s_m_Source_File>
proteinprep_23-out.maegz

> <i_m_Source_File_Index>
1

> <b_ppw_prepared>
1

> <s_ppw_prepared_with_version>
2022-4

> <b_ppw_created_disulfur>
1

> <r_ppw_preprocess_pH>
7.4

> <s_ppw_het_states>
eJyNlEtuwzAMRK9iaO0UIvWxnasEvUHQXVdB7l6ZjPOkokCdRfA84WhEic4jSLhOt/bRvMV5ip/ztKOACiYwgwWs4AKu4HZgiREUUMEEZrCAFVzAFSRNSBPShDQhTUgT0oQ0IU1IE9KUNCVNLW3n12H7DvV1NCbs+xTuwI+/F+wAdBAqFWqWREWyikxFPgQdhEJFsTXqKNgdDYJ0i1YTuorF1lhHYbC40PWymtDFurAhbGOFTZBvTJkjH6GjQk1ICL/Oww7Px0d7gWvw32yqRuG9MWvcZ2kUiJU0tm9d+ByNAili3Sr7UOtW6fYlWGxTLvGjCY+gsb3Q/hByadww7n2HqseTPOfp6/t+9+/dHeT9P1Bru5WLrXlj3T8ciqOecyQcyzlHxrGecxQc2/+O5w9Z/xYY

> <s_m_job_name>
proteinprep_23

> <r_i_target_temperature>
298

> <b_ppw_converted_selenomethionines>
1

> <i_pdb_PDB_Model>
1

> <r_i_Potential_Energy-S-OPLS>
-1018.35283363511

> <r_i_RMS_Derivative-S-OPLS>
0.0876114026578572

> <r_i_Max_Derivative-S-OPLS>
1.63034563505052

> <r_i_Stretch_Energy-S-OPLS>
72.4781505449479

> <r_i_Bend_Energy-S-OPLS>
374.128523292059

> <r_i_LJ-14_Energy-S-OPLS>
770.511390733071

> <r_i_El-14_Energy-S-OPLS>
124.575705795505

> <r_i_Van_der_Waals_Energy-S-OPLS>
-1594.68333124605

> <r_i_Electrostatic_Energy-S-OPLS>
-1127.1520549939

> <r_i_Dihedral_Energy-S-OPLS>
309.700541364241

> <s_pdb_PDB_source_format>
mmcif_pdbx.dic

> <s_m_subgroup_title>
proteinprep_23-out

> <s_m_subgroupid>
proteinprep_23-out

> <b_m_subgroup_collapsed>
0

$$$$
